Version 4.1
SHEET 1 1320 680
WIRE 80 64 32 64
WIRE 224 64 160 64
WIRE -256 112 -272 112
WIRE -64 112 -128 112
WIRE 384 112 336 112
WIRE 480 112 448 112
WIRE 1184 160 1184 128
WIRE 1184 160 1072 160
WIRE 1248 160 1184 160
WIRE -64 224 -192 224
WIRE 32 224 32 64
WIRE 32 224 16 224
WIRE 96 224 32 224
WIRE 224 240 224 64
WIRE 224 240 160 240
WIRE 336 240 336 112
WIRE 336 240 304 240
WIRE 384 240 336 240
WIRE -192 256 -192 224
WIRE -192 256 -320 256
WIRE -176 256 -192 256
WIRE -64 256 -96 256
WIRE 0 256 -64 256
WIRE 96 256 80 256
WIRE 480 256 480 112
WIRE 480 256 448 256
WIRE 624 256 480 256
WIRE 384 272 352 272
WIRE 704 272 688 272
WIRE 736 272 704 272
WIRE -416 288 -416 272
WIRE -320 288 -320 256
WIRE 352 288 352 272
WIRE 624 288 592 288
WIRE 1184 336 1072 336
WIRE 1248 336 1184 336
WIRE -64 384 -64 256
WIRE 1184 384 1184 336
WIRE 32 432 0 432
WIRE 80 432 32 432
WIRE 592 432 592 288
WIRE 624 432 592 432
WIRE 704 432 704 272
WIRE 160 544 160 432
WIRE 736 544 736 272
WIRE 736 544 160 544
FLAG -128 112 15V
IOPIN -128 112 In
FLAG -272 112 -15V
IOPIN -272 112 In
FLAG -64 32 0
FLAG -256 32 0
FLAG 128 208 15V
IOPIN 128 208 In
FLAG 128 272 -15V
IOPIN 128 272 In
FLAG 416 288 -15V
IOPIN 416 288 In
FLAG 416 224 15V
IOPIN 416 224 In
FLAG 352 288 0
FLAG -64 480 0
FLAG 656 304 -15V
IOPIN 656 304 In
FLAG 512 432 0
FLAG 656 240 15V
IOPIN 656 240 In
FLAG -320 368 0
FLAG 32 512 0
FLAG -416 368 0
FLAG -416 272 0
FLAG 1184 128 15V
IOPIN 1184 128 In
FLAG 1184 560 0
SYMBOL OpAmps\\opamp2 128 176 R0
SYMATTR InstName U1
SYMATTR Value LM318
SYMBOL voltage -320 272 R0
SYMATTR InstName DC
SYMATTR Value 5V
SYMBOL res 32 208 R90
WINDOW 0 0 56 VBottom 2
WINDOW 3 32 56 VTop 2
SYMATTR InstName R1
SYMATTR Value 10k
SYMBOL res -80 240 R90
WINDOW 0 0 56 VBottom 2
WINDOW 3 32 56 VTop 2
SYMATTR InstName R2
SYMATTR Value 10k
SYMBOL res 176 48 R90
WINDOW 0 0 56 VBottom 2
WINDOW 3 32 56 VTop 2
SYMATTR InstName R4
SYMATTR Value 10k
SYMBOL cap 448 96 R90
WINDOW 0 0 32 VBottom 2
WINDOW 3 32 32 VTop 2
SYMATTR InstName C1
SYMATTR Value 100n
SYMBOL OpAmps\\opamp2 416 192 R0
SYMATTR InstName U2
SYMATTR Value LM318
SYMBOL res 320 224 R90
WINDOW 0 0 56 VBottom 2
WINDOW 3 32 56 VTop 2
SYMATTR InstName R3
SYMATTR Value 1k
SYMBOL voltage -64 128 R180
WINDOW 0 24 96 Left 2
WINDOW 3 24 16 Left 2
WINDOW 123 0 0 Left 0
WINDOW 39 0 0 Left 0
SYMATTR InstName V1
SYMATTR Value 15
SYMBOL voltage -256 16 R0
WINDOW 0 24 96 Left 2
WINDOW 3 24 16 Left 2
WINDOW 123 0 0 Left 0
WINDOW 39 0 0 Left 0
SYMATTR InstName V2
SYMATTR Value 15
SYMBOL res 96 240 R90
WINDOW 0 0 56 VBottom 2
WINDOW 3 32 56 VTop 2
SYMATTR InstName R5
SYMATTR Value 100
SYMBOL npn 0 384 M0
SYMATTR InstName Q1
SYMBOL OpAmps\\opamp2 656 208 R0
SYMATTR InstName U3
SYMATTR Value LM318
SYMBOL res 608 416 R90
WINDOW 0 0 56 VBottom 2
WINDOW 3 32 56 VTop 2
SYMATTR InstName R6
SYMATTR Value 10k
SYMBOL res 720 416 R90
WINDOW 0 0 56 VBottom 2
WINDOW 3 32 56 VTop 2
SYMATTR InstName R7
SYMATTR Value 10k
SYMBOL res 16 416 R0
SYMATTR InstName R8
SYMATTR Value 1k
SYMBOL res 176 416 R90
WINDOW 0 0 56 VBottom 2
WINDOW 3 32 56 VTop 2
SYMATTR InstName R9
SYMATTR Value 1k
SYMBOL voltage -416 272 R0
WINDOW 123 24 124 Left 2
WINDOW 39 0 0 Left 0
SYMATTR Value2 AC 1
SYMATTR InstName V3
SYMATTR Value ""
SYMBOL npn 1008 240 R0
SYMATTR InstName Q2
SYMATTR Value 2N3904
SYMBOL npn 1312 240 M0
SYMATTR InstName Q3
SYMATTR Value 2N3904
SYMBOL res 1056 144 R0
SYMATTR InstName R11
SYMATTR Value 1.5k
SYMBOL res 1232 144 R0
SYMATTR InstName R12
SYMATTR Value 1.5k
SYMBOL npn 1120 384 R0
SYMATTR InstName Q4
SYMATTR Value 2N3904
SYMBOL res 1168 464 R0
SYMATTR InstName R10
SYMATTR Value 600
TEXT -176 -48 Left 2 !.include "LM318.lib"
TEXT -384 552 Left 2 !.tran 5m startup
TEXT 72 -16 Left 2 ;.ac dec 101 100 1Meg
